/*--------------------------------*- C++ -*----------------------------------*\
| =========                 |                                                 |
| \\      /  F ield         | OpenFOAM: The Open Source CFD Toolbox           |
|  \\    /   O peration     | Version:  2406                                  |
|   \\  /    A nd           | Website:  www.openfoam.com                      |
|    \\/     M anipulation  |                                                 |
\*---------------------------------------------------------------------------*/
FoamFile
{
    version     2.0;
    format      ascii;
    arch        "LSB;label=32;scalar=64";
    note        "nPoints:915031  nCells:3280755  nFaces:7141095  nInternalFaces:6960784";
    class       polyBoundaryMesh;
    location    "constant/polyMesh";
    object      boundary;
}
// * * * * * * * * * * * * * * * * * * * * * * * * * * * * * * * * * * * * * //

395
(
    face1
    {
        type            wall;
        inGroups        1(wall);
        nFaces          9078;
        startFace       6960784;
    }
    face2
    {
        type            patch;
        nFaces          4674;
        startFace       6969862;
    }
    face3
    {
        type            wall;
        inGroups        1(wall);
        nFaces          8986;
        startFace       6974536;
    }
    face4
    {
        type            patch;
        nFaces          4658;
        startFace       6983522;
    }
    face5
    {
        type            wall;
        inGroups        1(wall);
        nFaces          8997;
        startFace       6988180;
    }
    face6
    {
        type            wall;
        inGroups        1(wall);
        nFaces          9052;
        startFace       6997177;
    }
    face7
    {
        type            wall;
        inGroups        1(wall);
        nFaces          22;
        startFace       7006229;
    }
    face8
    {
        type            wall;
        inGroups        1(wall);
        nFaces          49;
        startFace       7006251;
    }
    face9
    {
        type            wall;
        inGroups        1(wall);
        nFaces          51;
        startFace       7006300;
    }
    face10
    {
        type            wall;
        inGroups        1(wall);
        nFaces          73;
        startFace       7006351;
    }
    face11
    {
        type            wall;
        inGroups        1(wall);
        nFaces          207;
        startFace       7006424;
    }
    face12
    {
        type            wall;
        inGroups        1(wall);
        nFaces          95;
        startFace       7006631;
    }
    face13
    {
        type            wall;
        inGroups        1(wall);
        nFaces          99;
        startFace       7006726;
    }
    face14
    {
        type            wall;
        inGroups        1(wall);
        nFaces          189;
        startFace       7006825;
    }
    face15
    {
        type            wall;
        inGroups        1(wall);
        nFaces          128;
        startFace       7007014;
    }
    face16
    {
        type            wall;
        inGroups        1(wall);
        nFaces          131;
        startFace       7007142;
    }
    face17
    {
        type            wall;
        inGroups        1(wall);
        nFaces          29;
        startFace       7007273;
    }
    face18
    {
        type            wall;
        inGroups        1(wall);
        nFaces          77;
        startFace       7007302;
    }
    face19
    {
        type            wall;
        inGroups        1(wall);
        nFaces          236;
        startFace       7007379;
    }
    face20
    {
        type            wall;
        inGroups        1(wall);
        nFaces          335;
        startFace       7007615;
    }
    face21
    {
        type            wall;
        inGroups        1(wall);
        nFaces          77;
        startFace       7007950;
    }
    face22
    {
        type            wall;
        inGroups        1(wall);
        nFaces          371;
        startFace       7008027;
    }
    face23
    {
        type            wall;
        inGroups        1(wall);
        nFaces          400;
        startFace       7008398;
    }
    face24
    {
        type            wall;
        inGroups        1(wall);
        nFaces          32;
        startFace       7008798;
    }
    face25
    {
        type            wall;
        inGroups        1(wall);
        nFaces          477;
        startFace       7008830;
    }
    face26
    {
        type            wall;
        inGroups        1(wall);
        nFaces          249;
        startFace       7009307;
    }
    face27
    {
        type            wall;
        inGroups        1(wall);
        nFaces          81;
        startFace       7009556;
    }
    face28
    {
        type            wall;
        inGroups        1(wall);
        nFaces          27;
        startFace       7009637;
    }
    face29
    {
        type            wall;
        inGroups        1(wall);
        nFaces          60;
        startFace       7009664;
    }
    face30
    {
        type            wall;
        inGroups        1(wall);
        nFaces          1222;
        startFace       7009724;
    }
    face31
    {
        type            wall;
        inGroups        1(wall);
        nFaces          141;
        startFace       7010946;
    }
    face32
    {
        type            wall;
        inGroups        1(wall);
        nFaces          25;
        startFace       7011087;
    }
    face33
    {
        type            wall;
        inGroups        1(wall);
        nFaces          58;
        startFace       7011112;
    }
    face34
    {
        type            wall;
        inGroups        1(wall);
        nFaces          66;
        startFace       7011170;
    }
    face35
    {
        type            wall;
        inGroups        1(wall);
        nFaces          1400;
        startFace       7011236;
    }
    face36
    {
        type            wall;
        inGroups        1(wall);
        nFaces          87;
        startFace       7012636;
    }
    face37
    {
        type            wall;
        inGroups        1(wall);
        nFaces          41;
        startFace       7012723;
    }
    face38
    {
        type            wall;
        inGroups        1(wall);
        nFaces          27;
        startFace       7012764;
    }
    face39
    {
        type            wall;
        inGroups        1(wall);
        nFaces          203;
        startFace       7012791;
    }
    face40
    {
        type            wall;
        inGroups        1(wall);
        nFaces          98;
        startFace       7012994;
    }
    face41
    {
        type            wall;
        inGroups        1(wall);
        nFaces          276;
        startFace       7013092;
    }
    face42
    {
        type            wall;
        inGroups        1(wall);
        nFaces          52;
        startFace       7013368;
    }
    face43
    {
        type            wall;
        inGroups        1(wall);
        nFaces          27;
        startFace       7013420;
    }
    face44
    {
        type            wall;
        inGroups        1(wall);
        nFaces          451;
        startFace       7013447;
    }
    face45
    {
        type            wall;
        inGroups        1(wall);
        nFaces          556;
        startFace       7013898;
    }
    face46
    {
        type            wall;
        inGroups        1(wall);
        nFaces          2495;
        startFace       7014454;
    }
    face47
    {
        type            wall;
        inGroups        1(wall);
        nFaces          161;
        startFace       7016949;
    }
    face48
    {
        type            wall;
        inGroups        1(wall);
        nFaces          33;
        startFace       7017110;
    }
    face49
    {
        type            wall;
        inGroups        1(wall);
        nFaces          29;
        startFace       7017143;
    }
    face50
    {
        type            wall;
        inGroups        1(wall);
        nFaces          284;
        startFace       7017172;
    }
    face51
    {
        type            wall;
        inGroups        1(wall);
        nFaces          52;
        startFace       7017456;
    }
    face52
    {
        type            wall;
        inGroups        1(wall);
        nFaces          62;
        startFace       7017508;
    }
    face53
    {
        type            wall;
        inGroups        1(wall);
        nFaces          169;
        startFace       7017570;
    }
    face54
    {
        type            wall;
        inGroups        1(wall);
        nFaces          147;
        startFace       7017739;
    }
    face55
    {
        type            wall;
        inGroups        1(wall);
        nFaces          345;
        startFace       7017886;
    }
    face56
    {
        type            wall;
        inGroups        1(wall);
        nFaces          291;
        startFace       7018231;
    }
    face57
    {
        type            wall;
        inGroups        1(wall);
        nFaces          243;
        startFace       7018522;
    }
    face58
    {
        type            wall;
        inGroups        1(wall);
        nFaces          155;
        startFace       7018765;
    }
    face59
    {
        type            wall;
        inGroups        1(wall);
        nFaces          6;
        startFace       7018920;
    }
    face60
    {
        type            wall;
        inGroups        1(wall);
        nFaces          124;
        startFace       7018926;
    }
    face61
    {
        type            wall;
        inGroups        1(wall);
        nFaces          119;
        startFace       7019050;
    }
    face62
    {
        type            wall;
        inGroups        1(wall);
        nFaces          26;
        startFace       7019169;
    }
    face63
    {
        type            wall;
        inGroups        1(wall);
        nFaces          2873;
        startFace       7019195;
    }
    face64
    {
        type            wall;
        inGroups        1(wall);
        nFaces          26;
        startFace       7022068;
    }
    face65
    {
        type            wall;
        inGroups        1(wall);
        nFaces          494;
        startFace       7022094;
    }
    face66
    {
        type            wall;
        inGroups        1(wall);
        nFaces          1615;
        startFace       7022588;
    }
    face67
    {
        type            wall;
        inGroups        1(wall);
        nFaces          409;
        startFace       7024203;
    }
    face68
    {
        type            wall;
        inGroups        1(wall);
        nFaces          438;
        startFace       7024612;
    }
    face69
    {
        type            wall;
        inGroups        1(wall);
        nFaces          168;
        startFace       7025050;
    }
    face70
    {
        type            wall;
        inGroups        1(wall);
        nFaces          792;
        startFace       7025218;
    }
    face71
    {
        type            wall;
        inGroups        1(wall);
        nFaces          984;
        startFace       7026010;
    }
    face72
    {
        type            wall;
        inGroups        1(wall);
        nFaces          905;
        startFace       7026994;
    }
    face73
    {
        type            wall;
        inGroups        1(wall);
        nFaces          673;
        startFace       7027899;
    }
    face74
    {
        type            wall;
        inGroups        1(wall);
        nFaces          1153;
        startFace       7028572;
    }
    face75
    {
        type            wall;
        inGroups        1(wall);
        nFaces          789;
        startFace       7029725;
    }
    face76
    {
        type            wall;
        inGroups        1(wall);
        nFaces          141;
        startFace       7030514;
    }
    face77
    {
        type            wall;
        inGroups        1(wall);
        nFaces          211;
        startFace       7030655;
    }
    face78
    {
        type            wall;
        inGroups        1(wall);
        nFaces          30;
        startFace       7030866;
    }
    face79
    {
        type            wall;
        inGroups        1(wall);
        nFaces          129;
        startFace       7030896;
    }
    face80
    {
        type            wall;
        inGroups        1(wall);
        nFaces          61;
        startFace       7031025;
    }
    face81
    {
        type            wall;
        inGroups        1(wall);
        nFaces          381;
        startFace       7031086;
    }
    face82
    {
        type            wall;
        inGroups        1(wall);
        nFaces          549;
        startFace       7031467;
    }
    face83
    {
        type            wall;
        inGroups        1(wall);
        nFaces          568;
        startFace       7032016;
    }
    face84
    {
        type            wall;
        inGroups        1(wall);
        nFaces          42;
        startFace       7032584;
    }
    face85
    {
        type            wall;
        inGroups        1(wall);
        nFaces          6;
        startFace       7032626;
    }
    face86
    {
        type            wall;
        inGroups        1(wall);
        nFaces          307;
        startFace       7032632;
    }
    face87
    {
        type            wall;
        inGroups        1(wall);
        nFaces          942;
        startFace       7032939;
    }
    face88
    {
        type            wall;
        inGroups        1(wall);
        nFaces          363;
        startFace       7033881;
    }
    face89
    {
        type            wall;
        inGroups        1(wall);
        nFaces          857;
        startFace       7034244;
    }
    face90
    {
        type            wall;
        inGroups        1(wall);
        nFaces          1876;
        startFace       7035101;
    }
    face91
    {
        type            wall;
        inGroups        1(wall);
        nFaces          253;
        startFace       7036977;
    }
    face92
    {
        type            wall;
        inGroups        1(wall);
        nFaces          240;
        startFace       7037230;
    }
    face93
    {
        type            wall;
        inGroups        1(wall);
        nFaces          438;
        startFace       7037470;
    }
    face94
    {
        type            wall;
        inGroups        1(wall);
        nFaces          275;
        startFace       7037908;
    }
    face95
    {
        type            wall;
        inGroups        1(wall);
        nFaces          648;
        startFace       7038183;
    }
    face96
    {
        type            wall;
        inGroups        1(wall);
        nFaces          68;
        startFace       7038831;
    }
    face97
    {
        type            wall;
        inGroups        1(wall);
        nFaces          1047;
        startFace       7038899;
    }
    face98
    {
        type            wall;
        inGroups        1(wall);
        nFaces          49;
        startFace       7039946;
    }
    face99
    {
        type            wall;
        inGroups        1(wall);
        nFaces          476;
        startFace       7039995;
    }
    face100
    {
        type            wall;
        inGroups        1(wall);
        nFaces          183;
        startFace       7040471;
    }
    face101
    {
        type            wall;
        inGroups        1(wall);
        nFaces          335;
        startFace       7040654;
    }
    face102
    {
        type            wall;
        inGroups        1(wall);
        nFaces          24;
        startFace       7040989;
    }
    face103
    {
        type            wall;
        inGroups        1(wall);
        nFaces          66;
        startFace       7041013;
    }
    face104
    {
        type            wall;
        inGroups        1(wall);
        nFaces          102;
        startFace       7041079;
    }
    face105
    {
        type            wall;
        inGroups        1(wall);
        nFaces          25;
        startFace       7041181;
    }
    face106
    {
        type            wall;
        inGroups        1(wall);
        nFaces          51;
        startFace       7041206;
    }
    face107
    {
        type            wall;
        inGroups        1(wall);
        nFaces          56;
        startFace       7041257;
    }
    face108
    {
        type            wall;
        inGroups        1(wall);
        nFaces          100;
        startFace       7041313;
    }
    face109
    {
        type            wall;
        inGroups        1(wall);
        nFaces          25;
        startFace       7041413;
    }
    face110
    {
        type            wall;
        inGroups        1(wall);
        nFaces          60;
        startFace       7041438;
    }
    face111
    {
        type            wall;
        inGroups        1(wall);
        nFaces          72;
        startFace       7041498;
    }
    face112
    {
        type            wall;
        inGroups        1(wall);
        nFaces          89;
        startFace       7041570;
    }
    face113
    {
        type            wall;
        inGroups        1(wall);
        nFaces          24;
        startFace       7041659;
    }
    face114
    {
        type            wall;
        inGroups        1(wall);
        nFaces          56;
        startFace       7041683;
    }
    face115
    {
        type            wall;
        inGroups        1(wall);
        nFaces          71;
        startFace       7041739;
    }
    face116
    {
        type            wall;
        inGroups        1(wall);
        nFaces          46;
        startFace       7041810;
    }
    face117
    {
        type            wall;
        inGroups        1(wall);
        nFaces          65;
        startFace       7041856;
    }
    face118
    {
        type            wall;
        inGroups        1(wall);
        nFaces          76;
        startFace       7041921;
    }
    face119
    {
        type            wall;
        inGroups        1(wall);
        nFaces          35;
        startFace       7041997;
    }
    face120
    {
        type            wall;
        inGroups        1(wall);
        nFaces          54;
        startFace       7042032;
    }
    face121
    {
        type            wall;
        inGroups        1(wall);
        nFaces          659;
        startFace       7042086;
    }
    face122
    {
        type            wall;
        inGroups        1(wall);
        nFaces          60;
        startFace       7042745;
    }
    face123
    {
        type            wall;
        inGroups        1(wall);
        nFaces          45;
        startFace       7042805;
    }
    face124
    {
        type            wall;
        inGroups        1(wall);
        nFaces          69;
        startFace       7042850;
    }
    face125
    {
        type            wall;
        inGroups        1(wall);
        nFaces          610;
        startFace       7042919;
    }
    face126
    {
        type            wall;
        inGroups        1(wall);
        nFaces          487;
        startFace       7043529;
    }
    face127
    {
        type            wall;
        inGroups        1(wall);
        nFaces          39;
        startFace       7044016;
    }
    face128
    {
        type            wall;
        inGroups        1(wall);
        nFaces          2671;
        startFace       7044055;
    }
    face129
    {
        type            wall;
        inGroups        1(wall);
        nFaces          48;
        startFace       7046726;
    }
    face130
    {
        type            wall;
        inGroups        1(wall);
        nFaces          705;
        startFace       7046774;
    }
    face131
    {
        type            wall;
        inGroups        1(wall);
        nFaces          1647;
        startFace       7047479;
    }
    face132
    {
        type            wall;
        inGroups        1(wall);
        nFaces          24;
        startFace       7049126;
    }
    face133
    {
        type            wall;
        inGroups        1(wall);
        nFaces          203;
        startFace       7049150;
    }
    face134
    {
        type            wall;
        inGroups        1(wall);
        nFaces          55;
        startFace       7049353;
    }
    face135
    {
        type            wall;
        inGroups        1(wall);
        nFaces          1108;
        startFace       7049408;
    }
    face136
    {
        type            wall;
        inGroups        1(wall);
        nFaces          44;
        startFace       7050516;
    }
    face137
    {
        type            wall;
        inGroups        1(wall);
        nFaces          67;
        startFace       7050560;
    }
    face138
    {
        type            wall;
        inGroups        1(wall);
        nFaces          670;
        startFace       7050627;
    }
    face139
    {
        type            wall;
        inGroups        1(wall);
        nFaces          40;
        startFace       7051297;
    }
    face140
    {
        type            wall;
        inGroups        1(wall);
        nFaces          34;
        startFace       7051337;
    }
    face141
    {
        type            wall;
        inGroups        1(wall);
        nFaces          172;
        startFace       7051371;
    }
    face142
    {
        type            wall;
        inGroups        1(wall);
        nFaces          172;
        startFace       7051543;
    }
    face143
    {
        type            wall;
        inGroups        1(wall);
        nFaces          93;
        startFace       7051715;
    }
    face144
    {
        type            wall;
        inGroups        1(wall);
        nFaces          83;
        startFace       7051808;
    }
    face145
    {
        type            wall;
        inGroups        1(wall);
        nFaces          86;
        startFace       7051891;
    }
    face146
    {
        type            wall;
        inGroups        1(wall);
        nFaces          24;
        startFace       7051977;
    }
    face147
    {
        type            wall;
        inGroups        1(wall);
        nFaces          147;
        startFace       7052001;
    }
    face148
    {
        type            wall;
        inGroups        1(wall);
        nFaces          28;
        startFace       7052148;
    }
    face149
    {
        type            wall;
        inGroups        1(wall);
        nFaces          478;
        startFace       7052176;
    }
    face150
    {
        type            wall;
        inGroups        1(wall);
        nFaces          47;
        startFace       7052654;
    }
    face151
    {
        type            wall;
        inGroups        1(wall);
        nFaces          165;
        startFace       7052701;
    }
    face152
    {
        type            wall;
        inGroups        1(wall);
        nFaces          32;
        startFace       7052866;
    }
    face153
    {
        type            wall;
        inGroups        1(wall);
        nFaces          459;
        startFace       7052898;
    }
    face154
    {
        type            wall;
        inGroups        1(wall);
        nFaces          319;
        startFace       7053357;
    }
    face155
    {
        type            wall;
        inGroups        1(wall);
        nFaces          3655;
        startFace       7053676;
    }
    face156
    {
        type            wall;
        inGroups        1(wall);
        nFaces          241;
        startFace       7057331;
    }
    face157
    {
        type            wall;
        inGroups        1(wall);
        nFaces          31;
        startFace       7057572;
    }
    face158
    {
        type            wall;
        inGroups        1(wall);
        nFaces          334;
        startFace       7057603;
    }
    face159
    {
        type            wall;
        inGroups        1(wall);
        nFaces          29;
        startFace       7057937;
    }
    face160
    {
        type            wall;
        inGroups        1(wall);
        nFaces          45;
        startFace       7057966;
    }
    face161
    {
        type            wall;
        inGroups        1(wall);
        nFaces          3206;
        startFace       7058011;
    }
    face162
    {
        type            wall;
        inGroups        1(wall);
        nFaces          126;
        startFace       7061217;
    }
    face163
    {
        type            wall;
        inGroups        1(wall);
        nFaces          28;
        startFace       7061343;
    }
    face164
    {
        type            wall;
        inGroups        1(wall);
        nFaces          106;
        startFace       7061371;
    }
    face165
    {
        type            wall;
        inGroups        1(wall);
        nFaces          131;
        startFace       7061477;
    }
    face166
    {
        type            wall;
        inGroups        1(wall);
        nFaces          36;
        startFace       7061608;
    }
    face167
    {
        type            wall;
        inGroups        1(wall);
        nFaces          271;
        startFace       7061644;
    }
    face168
    {
        type            wall;
        inGroups        1(wall);
        nFaces          169;
        startFace       7061915;
    }
    face169
    {
        type            wall;
        inGroups        1(wall);
        nFaces          28;
        startFace       7062084;
    }
    face170
    {
        type            wall;
        inGroups        1(wall);
        nFaces          254;
        startFace       7062112;
    }
    face171
    {
        type            wall;
        inGroups        1(wall);
        nFaces          27;
        startFace       7062366;
    }
    face172
    {
        type            wall;
        inGroups        1(wall);
        nFaces          12988;
        startFace       7062393;
    }
    face173
    {
        type            wall;
        inGroups        1(wall);
        nFaces          29;
        startFace       7075381;
    }
    face174
    {
        type            wall;
        inGroups        1(wall);
        nFaces          3818;
        startFace       7075410;
    }
    face175
    {
        type            wall;
        inGroups        1(wall);
        nFaces          34;
        startFace       7079228;
    }
    face176
    {
        type            wall;
        inGroups        1(wall);
        nFaces          70;
        startFace       7079262;
    }
    face177
    {
        type            wall;
        inGroups        1(wall);
        nFaces          215;
        startFace       7079332;
    }
    face178
    {
        type            wall;
        inGroups        1(wall);
        nFaces          36;
        startFace       7079547;
    }
    face179
    {
        type            wall;
        inGroups        1(wall);
        nFaces          172;
        startFace       7079583;
    }
    face180
    {
        type            wall;
        inGroups        1(wall);
        nFaces          28;
        startFace       7079755;
    }
    face181
    {
        type            wall;
        inGroups        1(wall);
        nFaces          107;
        startFace       7079783;
    }
    face182
    {
        type            wall;
        inGroups        1(wall);
        nFaces          128;
        startFace       7079890;
    }
    face183
    {
        type            wall;
        inGroups        1(wall);
        nFaces          181;
        startFace       7080018;
    }
    face184
    {
        type            wall;
        inGroups        1(wall);
        nFaces          26;
        startFace       7080199;
    }
    face185
    {
        type            wall;
        inGroups        1(wall);
        nFaces          98;
        startFace       7080225;
    }
    face186
    {
        type            wall;
        inGroups        1(wall);
        nFaces          343;
        startFace       7080323;
    }
    face187
    {
        type            wall;
        inGroups        1(wall);
        nFaces          101;
        startFace       7080666;
    }
    face188
    {
        type            wall;
        inGroups        1(wall);
        nFaces          452;
        startFace       7080767;
    }
    face189
    {
        type            wall;
        inGroups        1(wall);
        nFaces          33;
        startFace       7081219;
    }
    face190
    {
        type            wall;
        inGroups        1(wall);
        nFaces          343;
        startFace       7081252;
    }
    face191
    {
        type            wall;
        inGroups        1(wall);
        nFaces          408;
        startFace       7081595;
    }
    face192
    {
        type            wall;
        inGroups        1(wall);
        nFaces          196;
        startFace       7082003;
    }
    face193
    {
        type            wall;
        inGroups        1(wall);
        nFaces          34;
        startFace       7082199;
    }
    face194
    {
        type            wall;
        inGroups        1(wall);
        nFaces          108;
        startFace       7082233;
    }
    face195
    {
        type            wall;
        inGroups        1(wall);
        nFaces          3984;
        startFace       7082341;
    }
    face196
    {
        type            wall;
        inGroups        1(wall);
        nFaces          137;
        startFace       7086325;
    }
    face197
    {
        type            wall;
        inGroups        1(wall);