FoamFile {
    version 2.0;
    format ascii;
    class dictionary;
    object MRFProperties;
}
rotating_zone_0_0 {
    selectionMode cellZone;
    active on;
    nonRotatingPatches ();
    cellZone region2;
    origin (0.0 0.0 0.0);
    axis (0.0 1.0 0.0);
    omega constant 350.0;
}
